
OS:Version,
  {70977ed0-0c14-435a-b726-fea7bcfc1f61}, !- Handle
  2.8.0;                                  !- Version Identifier

OS:Site,
  {cbe8bb84-e5d0-47a5-8e7b-bc760128021c}, !- Handle
  Chicago Ohare Intl Ap,                  !- Name
  41.98,                                  !- Latitude {deg}
  -87.92,                                 !- Longitude {deg}
  -6,                                     !- Time Zone {hr}
  201,                                    !- Elevation {m}
  ;                                       !- Terrain

OS:YearDescription,
  {885b7e09-8489-482e-a7b5-bcb9679f8f5f}, !- Handle
  ,                                       !- Calendar Year
  Sunday;                                 !- Day of Week for Start Day

OS:ClimateZones,
  {e4ff88fa-32ab-40ae-90e1-5d2083ba66f3}, !- Handle
  ,                                       !- Active Institution
  ,                                       !- Active Year
  ,                                       !- Climate Zone Institution Name 1
  ,                                       !- Climate Zone Document Name 1
  ,                                       !- Climate Zone Document Year 1
  5A,                                     !- Climate Zone Value 1
  CEC,                                    !- Climate Zone Institution Name 2
  California Climate Zone Descriptions,   !- Climate Zone Document Name 2
  1995,                                   !- Climate Zone Document Year 2
  ;                                       !- Climate Zone Value 2

OS:Building,
  {1aa48aca-72bb-4cf9-a429-0ba982cf23c4}, !- Handle
  Building 1,                             !- Name
  ,                                       !- Building Sector Type
  ,                                       !- North Axis {deg}
  ,                                       !- Nominal Floor to Floor Height {m}
  {1a879d8b-4924-42f5-b280-025506dc7665}, !- Space Type Name
  {17f658e3-2974-4aa5-a151-ec4f454968e2}, !- Default Construction Set Name
  {a635df1d-20f5-421d-903f-ea5fae2bdf06}; !- Default Schedule Set Name

OS:Facility,
  {8b4d7e1c-4ae2-4f4a-8f98-5bba01e43d74}; !- Handle

OS:SimulationControl,
  {5b53a314-4ef7-4ec6-a95e-30e84ed875c4}; !- Handle

OS:Sizing:Parameters,
  {9187e888-bafd-4f08-a8b5-9feb73d26874}, !- Handle
  1.25,                                   !- Heating Sizing Factor
  1.15;                                   !- Cooling Sizing Factor

OS:Timestep,
  {f8e38130-95ef-4891-aab3-6692981bbca1}, !- Handle
  6;                                      !- Number of Timesteps per Hour

OS:ShadowCalculation,
  {a4ccdfd2-1466-40d9-9d97-b6c293aa28d1}, !- Handle
  20,                                     !- Calculation Frequency
  15000;                                  !- Maximum Figures in Shadow Overlap Calculations

OS:HeatBalanceAlgorithm,
  {1b779cdd-3359-43ce-b3e5-600880e2c5a1}, !- Handle
  ConductionTransferFunction,             !- Algorithm
  200;                                    !- Surface Temperature Upper Limit {C}

OS:RunPeriod,
  {f3cc3bd1-86e1-4e79-b7c9-96e8da8d8d0c}, !- Handle
  Run Period 1,                           !- Name
  1,                                      !- Begin Month
  1,                                      !- Begin Day of Month
  12,                                     !- End Month
  31,                                     !- End Day of Month
  ,                                       !- Use Weather File Holidays and Special Days
  ,                                       !- Use Weather File Daylight Saving Period
  ,                                       !- Apply Weekend Holiday Rule
  ,                                       !- Use Weather File Rain Indicators
  ,                                       !- Use Weather File Snow Indicators
  ;                                       !- Number of Times Runperiod to be Repeated

OS:LifeCycleCost:Parameters,
  {74727a6b-548a-44b6-8070-d49340c396e1}, !- Handle
  ,                                       !- Analysis Type
  ,                                       !- Discounting Convention
  ,                                       !- Inflation Approach
  ,                                       !- Real Discount Rate
  ,                                       !- Nominal Discount Rate
  ,                                       !- Inflation
  ,                                       !- Base Date Month
  ,                                       !- Base Date Year
  ,                                       !- Service Date Month
  ,                                       !- Service Date Year
  ;                                       !- Length of Study Period in Years

OS:Space,
  {41c36097-9707-4315-9f51-403f36b8a831}, !- Handle
  Space 2 - 7,                            !- Name
  {de3b6145-ceda-43a6-859a-fd02daf0cd01}, !- Space Type Name
  ,                                       !- Default Construction Set Name
  ,                                       !- Default Schedule Set Name
  ,                                       !- Direction of Relative North {deg}
  ,                                       !- X Origin {m}
  ,                                       !- Y Origin {m}
  ,                                       !- Z Origin {m}
  {0297a5be-838b-4648-babe-8ad70cfcb65d}, !- Building Story Name
  {69e5eaae-1bea-4c83-bcfa-d8643e52a675}, !- Thermal Zone Name
  ,                                       !- Part of Total Floor Area
  ,                                       !- Design Specification Outdoor Air Object Name
  ;                                       !- Building Unit Name

OS:BuildingStory,
  {0297a5be-838b-4648-babe-8ad70cfcb65d}, !- Handle
  Story 2,                                !- Name
  2.4384,                                 !- Nominal Z Coordinate {m}
  2.4384,                                 !- Nominal Floor to Floor Height {m}
  ,                                       !- Default Construction Set Name
  ,                                       !- Default Schedule Set Name
  {bda61b3c-7d35-42f8-bc79-4996d85d9448}, !- Group Rendering Name
  2.4384;                                 !- Nominal Floor to Ceiling Height {m}

OS:Rendering:Color,
  {bda61b3c-7d35-42f8-bc79-4996d85d9448}, !- Handle
  Rendering Color 1,                      !- Name
  17,                                     !- Rendering Red Value
  119,                                    !- Rendering Green Value
  51,                                     !- Rendering Blue Value
  255;                                    !- Rendering Alpha Value

OS:Space,
  {339d38a4-8c83-4e63-805a-790bcbe642b4}, !- Handle
  Space 2 - 6,                            !- Name
  {70d39ef9-490f-4dd3-9451-46ba2b4d1c5b}, !- Space Type Name
  ,                                       !- Default Construction Set Name
  ,                                       !- Default Schedule Set Name
  ,                                       !- Direction of Relative North {deg}
  ,                                       !- X Origin {m}
  ,                                       !- Y Origin {m}
  ,                                       !- Z Origin {m}
  {0297a5be-838b-4648-babe-8ad70cfcb65d}, !- Building Story Name
  {3928a6dd-eb51-47fe-8165-5e0e1f6c228f}, !- Thermal Zone Name
  ,                                       !- Part of Total Floor Area
  ,                                       !- Design Specification Outdoor Air Object Name
  ;                                       !- Building Unit Name

OS:Space,
  {4baf505e-84ac-4792-aa2d-d51f43397a30}, !- Handle
  Space 2 - 5,                            !- Name
  {70d39ef9-490f-4dd3-9451-46ba2b4d1c5b}, !- Space Type Name
  ,                                       !- Default Construction Set Name
  ,                                       !- Default Schedule Set Name
  ,                                       !- Direction of Relative North {deg}
  ,                                       !- X Origin {m}
  ,                                       !- Y Origin {m}
  ,                                       !- Z Origin {m}
  {0297a5be-838b-4648-babe-8ad70cfcb65d}, !- Building Story Name
  {3928a6dd-eb51-47fe-8165-5e0e1f6c228f}, !- Thermal Zone Name
  ,                                       !- Part of Total Floor Area
  ,                                       !- Design Specification Outdoor Air Object Name
  ;                                       !- Building Unit Name

OS:Space,
  {e01f9774-f4af-44b0-b181-d95d395e05f7}, !- Handle
  Space 2 - 8,                            !- Name
  {70d39ef9-490f-4dd3-9451-46ba2b4d1c5b}, !- Space Type Name
  ,                                       !- Default Construction Set Name
  ,                                       !- Default Schedule Set Name
  ,                                       !- Direction of Relative North {deg}
  ,                                       !- X Origin {m}
  ,                                       !- Y Origin {m}
  ,                                       !- Z Origin {m}
  {0297a5be-838b-4648-babe-8ad70cfcb65d}, !- Building Story Name
  {69e5eaae-1bea-4c83-bcfa-d8643e52a675}, !- Thermal Zone Name
  ,                                       !- Part of Total Floor Area
  ,                                       !- Design Specification Outdoor Air Object Name
  ;                                       !- Building Unit Name

OS:Space,
  {24289bb9-db70-42e7-b897-f041c81212db}, !- Handle
  Space 2 - 3,                            !- Name
  {de3b6145-ceda-43a6-859a-fd02daf0cd01}, !- Space Type Name
  ,                                       !- Default Construction Set Name
  ,                                       !- Default Schedule Set Name
  ,                                       !- Direction of Relative North {deg}
  ,                                       !- X Origin {m}
  ,                                       !- Y Origin {m}
  ,                                       !- Z Origin {m}
  {0297a5be-838b-4648-babe-8ad70cfcb65d}, !- Building Story Name
  {2863f6ad-2f31-4f04-909b-d892e2dc2b60}, !- Thermal Zone Name
  ,                                       !- Part of Total Floor Area
  ,                                       !- Design Specification Outdoor Air Object Name
  ;                                       !- Building Unit Name

OS:Space,
  {38d65e61-e601-4c8c-b734-bbc01042e0f5}, !- Handle
  Space 2 - 2,                            !- Name
  {de3b6145-ceda-43a6-859a-fd02daf0cd01}, !- Space Type Name
  ,                                       !- Default Construction Set Name
  ,                                       !- Default Schedule Set Name
  ,                                       !- Direction of Relative North {deg}
  ,                                       !- X Origin {m}
  ,                                       !- Y Origin {m}
  ,                                       !- Z Origin {m}
  {0297a5be-838b-4648-babe-8ad70cfcb65d}, !- Building Story Name
  {2863f6ad-2f31-4f04-909b-d892e2dc2b60}, !- Thermal Zone Name
  ,                                       !- Part of Total Floor Area
  ,                                       !- Design Specification Outdoor Air Object Name
  ;                                       !- Building Unit Name

OS:Space,
  {62f3314c-8967-4946-a53a-6e199b8a4bbb}, !- Handle
  Space 2 - 13,                           !- Name
  {232a7bbd-bb9f-448c-82bb-9889b1de401d}, !- Space Type Name
  ,                                       !- Default Construction Set Name
  ,                                       !- Default Schedule Set Name
  ,                                       !- Direction of Relative North {deg}
  ,                                       !- X Origin {m}
  ,                                       !- Y Origin {m}
  ,                                       !- Z Origin {m}
  {0297a5be-838b-4648-babe-8ad70cfcb65d}, !- Building Story Name
  {e65577d9-b0c8-4dc4-a61a-372918cd66e0}, !- Thermal Zone Name
  ,                                       !- Part of Total Floor Area
  ,                                       !- Design Specification Outdoor Air Object Name
  ;                                       !- Building Unit Name

OS:Space,
  {67d3017c-7a59-4b00-a7aa-2bd302b37270}, !- Handle
  Space 2 - 12,                           !- Name
  {232a7bbd-bb9f-448c-82bb-9889b1de401d}, !- Space Type Name
  ,                                       !- Default Construction Set Name
  ,                                       !- Default Schedule Set Name
  ,                                       !- Direction of Relative North {deg}
  ,                                       !- X Origin {m}
  ,                                       !- Y Origin {m}
  ,                                       !- Z Origin {m}
  {0297a5be-838b-4648-babe-8ad70cfcb65d}, !- Building Story Name
  {e65577d9-b0c8-4dc4-a61a-372918cd66e0}, !- Thermal Zone Name
  ,                                       !- Part of Total Floor Area
  ,                                       !- Design Specification Outdoor Air Object Name
  ;                                       !- Building Unit Name

OS:Space,
  {3c1ecfda-b11f-4652-b1b2-990358c9cd01}, !- Handle
  Space 2 - 9,                            !- Name
  {de3b6145-ceda-43a6-859a-fd02daf0cd01}, !- Space Type Name
  ,                                       !- Default Construction Set Name
  ,                                       !- Default Schedule Set Name
  ,                                       !- Direction of Relative North {deg}
  ,                                       !- X Origin {m}
  ,                                       !- Y Origin {m}
  ,                                       !- Z Origin {m}
  {0297a5be-838b-4648-babe-8ad70cfcb65d}, !- Building Story Name
  {69e5eaae-1bea-4c83-bcfa-d8643e52a675}, !- Thermal Zone Name
  ,                                       !- Part of Total Floor Area
  ,                                       !- Design Specification Outdoor Air Object Name
  ;                                       !- Building Unit Name

OS:Space,
  {f3f11ec6-8fb8-49b1-922d-f4141ffddee3}, !- Handle
  Space 2 - 11,                           !- Name
  {de3b6145-ceda-43a6-859a-fd02daf0cd01}, !- Space Type Name
  ,                                       !- Default Construction Set Name
  ,                                       !- Default Schedule Set Name
  ,                                       !- Direction of Relative North {deg}
  ,                                       !- X Origin {m}
  ,                                       !- Y Origin {m}
  ,                                       !- Z Origin {m}
  {0297a5be-838b-4648-babe-8ad70cfcb65d}, !- Building Story Name
  {69e5eaae-1bea-4c83-bcfa-d8643e52a675}, !- Thermal Zone Name
  ,                                       !- Part of Total Floor Area
  ,                                       !- Design Specification Outdoor Air Object Name
  ;                                       !- Building Unit Name

OS:Space,
  {543e61a9-271a-4cb1-9183-be4f59eac40f}, !- Handle
  Space 1 - 6,                            !- Name
  {ff863195-fd7c-4a9d-b20d-e15a7080a539}, !- Space Type Name
  ,                                       !- Default Construction Set Name
  ,                                       !- Default Schedule Set Name
  ,                                       !- Direction of Relative North {deg}
  ,                                       !- X Origin {m}
  ,                                       !- Y Origin {m}
  ,                                       !- Z Origin {m}
  {22f9cc0f-ebd6-435f-a696-681643bbba11}, !- Building Story Name
  {5066a632-0d22-4dab-8e75-0b5c84d5c896}, !- Thermal Zone Name
  ,                                       !- Part of Total Floor Area
  ,                                       !- Design Specification Outdoor Air Object Name
  ;                                       !- Building Unit Name

OS:BuildingStory,
  {22f9cc0f-ebd6-435f-a696-681643bbba11}, !- Handle
  Story 1,                                !- Name
  0,                                      !- Nominal Z Coordinate {m}
  2.4384,                                 !- Nominal Floor to Floor Height {m}
  ,                                       !- Default Construction Set Name
  ,                                       !- Default Schedule Set Name
  {8cf89e89-e41f-4416-b3d7-65b093b68fc9}, !- Group Rendering Name
  2.4384;                                 !- Nominal Floor to Ceiling Height {m}

OS:Rendering:Color,
  {8cf89e89-e41f-4416-b3d7-65b093b68fc9}, !- Handle
  Rendering Color 2,                      !- Name
  51,                                     !- Rendering Red Value
  34,                                     !- Rendering Green Value
  136,                                    !- Rendering Blue Value
  255;                                    !- Rendering Alpha Value

OS:Space,
  {4342788b-40a6-4090-95bf-5d2f202d4824}, !- Handle
  Space 1 - 4,                            !- Name
  {70d39ef9-490f-4dd3-9451-46ba2b4d1c5b}, !- Space Type Name
  ,                                       !- Default Construction Set Name
  ,                                       !- Default Schedule Set Name
  ,                                       !- Direction of Relative North {deg}
  ,                                       !- X Origin {m}
  ,                                       !- Y Origin {m}
  ,                                       !- Z Origin {m}
  {22f9cc0f-ebd6-435f-a696-681643bbba11}, !- Building Story Name
  {0e57fb33-7b55-40e7-89e3-eb5692847cb0}, !- Thermal Zone Name
  ,                                       !- Part of Total Floor Area
  ,                                       !- Design Specification Outdoor Air Object Name
  ;                                       !- Building Unit Name

OS:Space,
  {36a65f0a-7baf-4611-9c79-ca2ce1b41386}, !- Handle
  Space 1 - 7,                            !- Name
  {ff863195-fd7c-4a9d-b20d-e15a7080a539}, !- Space Type Name
  ,                                       !- Default Construction Set Name
  ,                                       !- Default Schedule Set Name
  ,                                       !- Direction of Relative North {deg}
  ,                                       !- X Origin {m}
  ,                                       !- Y Origin {m}
  ,                                       !- Z Origin {m}
  {22f9cc0f-ebd6-435f-a696-681643bbba11}, !- Building Story Name
  {5066a632-0d22-4dab-8e75-0b5c84d5c896}, !- Thermal Zone Name
  ,                                       !- Part of Total Floor Area
  ,                                       !- Design Specification Outdoor Air Object Name
  ;                                       !- Building Unit Name

OS:Space,
  {b440d918-6ee8-41e4-a736-3d03b48899fc}, !- Handle
  Space 1 - 3,                            !- Name
  {b2c414f0-1a45-40cc-8d65-ba86a3deb2de}, !- Space Type Name
  ,                                       !- Default Construction Set Name
  ,                                       !- Default Schedule Set Name
  ,                                       !- Direction of Relative North {deg}
  ,                                       !- X Origin {m}
  ,                                       !- Y Origin {m}
  ,                                       !- Z Origin {m}
  {22f9cc0f-ebd6-435f-a696-681643bbba11}, !- Building Story Name
  {0e57fb33-7b55-40e7-89e3-eb5692847cb0}, !- Thermal Zone Name
  ,                                       !- Part of Total Floor Area
  ,                                       !- Design Specification Outdoor Air Object Name
  ;                                       !- Building Unit Name

OS:Space,
  {b552f639-edcb-4720-a832-fd984abe9771}, !- Handle
  Space 2 - 14,                           !- Name
  {39451148-7947-42c7-b65d-4ce3bde37e2b}, !- Space Type Name
  ,                                       !- Default Construction Set Name
  ,                                       !- Default Schedule Set Name
  ,                                       !- Direction of Relative North {deg}
  ,                                       !- X Origin {m}
  ,                                       !- Y Origin {m}
  ,                                       !- Z Origin {m}
  {0297a5be-838b-4648-babe-8ad70cfcb65d}, !- Building Story Name
  {e65577d9-b0c8-4dc4-a61a-372918cd66e0}, !- Thermal Zone Name
  ,                                       !- Part of Total Floor Area
  ,                                       !- Design Specification Outdoor Air Object Name
  ;                                       !- Building Unit Name

OS:Space,
  {da709add-8b14-4787-819d-239358c606e1}, !- Handle
  Space 2 - 10,                           !- Name
  {70d39ef9-490f-4dd3-9451-46ba2b4d1c5b}, !- Space Type Name
  ,                                       !- Default Construction Set Name
  ,                                       !- Default Schedule Set Name
  ,                                       !- Direction of Relative North {deg}
  ,                                       !- X Origin {m}
  ,                                       !- Y Origin {m}
  ,                                       !- Z Origin {m}
  {0297a5be-838b-4648-babe-8ad70cfcb65d}, !- Building Story Name
  {69e5eaae-1bea-4c83-bcfa-d8643e52a675}, !- Thermal Zone Name
  ,                                       !- Part of Total Floor Area
  ,                                       !- Design Specification Outdoor Air Object Name
  ;                                       !- Building Unit Name

OS:Space,
  {26567655-fcc7-45b7-91ac-a2f2afaac52e}, !- Handle
  Space 2 - 1,                            !- Name
  {70d39ef9-490f-4dd3-9451-46ba2b4d1c5b}, !- Space Type Name
  ,                                       !- Default Construction Set Name
  ,                                       !- Default Schedule Set Name
  ,                                       !- Direction of Relative North {deg}
  ,                                       !- X Origin {m}
  ,                                       !- Y Origin {m}
  ,                                       !- Z Origin {m}
  {0297a5be-838b-4648-babe-8ad70cfcb65d}, !- Building Story Name
  {2863f6ad-2f31-4f04-909b-d892e2dc2b60}, !- Thermal Zone Name
  ,                                       !- Part of Total Floor Area
  ,                                       !- Design Specification Outdoor Air Object Name
  ;                                       !- Building Unit Name

OS:Space,
  {f9db79f4-736f-4ab9-bc07-3070ecd1b7e7}, !- Handle
  Space 1 - 5,                            !- Name
  {70d39ef9-490f-4dd3-9451-46ba2b4d1c5b}, !- Space Type Name
  ,                                       !- Default Construction Set Name
  ,                                       !- Default Schedule Set Name
  ,                                       !- Direction of Relative North {deg}
  ,                                       !- X Origin {m}
  ,                                       !- Y Origin {m}
  ,                                       !- Z Origin {m}
  {22f9cc0f-ebd6-435f-a696-681643bbba11}, !- Building Story Name
  {2197637f-0d50-4e98-9449-79b91d66ae5f}, !- Thermal Zone Name
  ,                                       !- Part of Total Floor Area
  ,                                       !- Design Specification Outdoor Air Object Name
  ;                                       !- Building Unit Name

OS:Space,
  {d00f602c-a0c9-41ec-8824-a621ff90a6bf}, !- Handle
  Space 2 - 4,                            !- Name
  {70d39ef9-490f-4dd3-9451-46ba2b4d1c5b}, !- Space Type Name
  ,                                       !- Default Construction Set Name
  ,                                       !- Default Schedule Set Name
  ,                                       !- Direction of Relative North {deg}
  ,                                       !- X Origin {m}
  ,                                       !- Y Origin {m}
  ,                                       !- Z Origin {m}
  {0297a5be-838b-4648-babe-8ad70cfcb65d}, !- Building Story Name
  {2863f6ad-2f31-4f04-909b-d892e2dc2b60}, !- Thermal Zone Name
  ,                                       !- Part of Total Floor Area
  ,                                       !- Design Specification Outdoor Air Object Name
  ;                                       !- Building Unit Name

OS:Space,
  {b7f97efd-f0a0-47b2-b14a-d950471410fb}, !- Handle
  Space 1 - 2,                            !- Name
  {5521c851-a385-4a86-baac-6aee95ef76ab}, !- Space Type Name
  ,                                       !- Default Construction Set Name
  ,                                       !- Default Schedule Set Name
  ,                                       !- Direction of Relative North {deg}
  ,                                       !- X Origin {m}
  ,                                       !- Y Origin {m}
  ,                                       !- Z Origin {m}
  {22f9cc0f-ebd6-435f-a696-681643bbba11}, !- Building Story Name
  {53e90bca-1e22-4318-bc6e-b8d1b67b0efa}, !- Thermal Zone Name
  ,                                       !- Part of Total Floor Area
  ,                                       !- Design Specification Outdoor Air Object Name
  ;                                       !- Building Unit Name

OS:Space,
  {595bcbad-5bf4-4ff8-8386-ad38cb7c7fac}, !- Handle
  Space 1 - 1,                            !- Name
  {70d39ef9-490f-4dd3-9451-46ba2b4d1c5b}, !- Space Type Name
  ,                                       !- Default Construction Set Name
  ,                                       !- Default Schedule Set Name
  ,                                       !- Direction of Relative North {deg}
  ,                                       !- X Origin {m}
  ,                                       !- Y Origin {m}
  ,                                       !- Z Origin {m}
  {22f9cc0f-ebd6-435f-a696-681643bbba11}, !- Building Story Name
  {2197637f-0d50-4e98-9449-79b91d66ae5f}, !- Thermal Zone Name
  ,                                       !- Part of Total Floor Area
  ,                                       !- Design Specification Outdoor Air Object Name
  ;                                       !- Building Unit Name

OS:ThermalZone,
  {2863f6ad-2f31-4f04-909b-d892e2dc2b60}, !- Handle
  Thermal Zone 5,                         !- Name
  1,                                      !- Multiplier
  ,                                       !- Ceiling Height {m}
  ,                                       !- Volume {m3}
  ,                                       !- Floor Area {m2}
  ,                                       !- Zone Inside Convection Algorithm
  ,                                       !- Zone Outside Convection Algorithm
  ,                                       !- Zone Conditioning Equipment List Name
  {2c87ce33-a289-4cf5-9027-1990fba8d100}, !- Zone Air Inlet Port List
  {87eb0f4d-969c-455c-978b-91606c85fc12}, !- Zone Air Exhaust Port List
  {b83abf3b-db2a-481e-a96f-947d850a46fa}, !- Zone Air Node Name
  {4fd00c90-cae0-4c1a-a166-3dd65d011f8f}, !- Zone Return Air Port List
  ,                                       !- Primary Daylighting Control Name
  ,                                       !- Fraction of Zone Controlled by Primary Daylighting Control
  ,                                       !- Secondary Daylighting Control Name
  ,                                       !- Fraction of Zone Controlled by Secondary Daylighting Control
  ,                                       !- Illuminance Map Name
  {729e1638-57f4-40f5-a2b6-9d77579f3c6b}, !- Group Rendering Name
  {c7f73f70-7c32-4c67-ad56-fcc6933cfe0c}, !- Thermostat Name
  No;                                     !- Use Ideal Air Loads

OS:Node,
  {6d4968e9-410c-40cb-b6f8-080c9363af76}, !- Handle
  Node 1,                                 !- Name
  {b83abf3b-db2a-481e-a96f-947d850a46fa}, !- Inlet Port
  ;                                       !- Outlet Port

OS:Connection,
  {b83abf3b-db2a-481e-a96f-947d850a46fa}, !- Handle
  {4e702f6b-52ea-41dd-9412-c40fb4fccd2c}, !- Name
  {2863f6ad-2f31-4f04-909b-d892e2dc2b60}, !- Source Object
  11,                                     !- Outlet Port
  {6d4968e9-410c-40cb-b6f8-080c9363af76}, !- Target Object
  2;                                      !- Inlet Port

OS:PortList,
  {2c87ce33-a289-4cf5-9027-1990fba8d100}, !- Handle
  {0db58328-662b-4b72-839d-101774bacbfc}, !- Name
  {2863f6ad-2f31-4f04-909b-d892e2dc2b60}, !- HVAC Component
  {be86b2d4-9583-4c76-96c3-c463a139aa2c}, !- Port 1
  {bc094b90-6721-441b-a4ae-0c82bb2720f4}; !- Port 2

OS:PortList,
  {87eb0f4d-969c-455c-978b-91606c85fc12}, !- Handle
  {250f33c3-267e-471f-b461-ff7a5580b745}, !- Name
  {2863f6ad-2f31-4f04-909b-d892e2dc2b60}, !- HVAC Component
  {667d394f-93eb-4c13-850b-33894598597a}; !- Port 1

OS:PortList,
  {4fd00c90-cae0-4c1a-a166-3dd65d011f8f}, !- Handle
  {021ab4f1-1eda-48b6-981c-883d89f1e55b}, !- Name
  {2863f6ad-2f31-4f04-909b-d892e2dc2b60}, !- HVAC Component
  {15d6878e-bc9b-4194-ba33-7b4cf3cdbf99}; !- Port 1

OS:Sizing:Zone,
  {85865678-728f-44cb-9352-a9911f44029d}, !- Handle
  {2863f6ad-2f31-4f04-909b-d892e2dc2b60}, !- Zone or ZoneList Name
  SupplyAirTemperature,                   !- Zone Cooling Design Supply Air Temperature Input Method
  14,                                     !- Zone Cooling Design Supply Air Temperature {C}
  11.11,                                  !- Zone Cooling Design Supply Air Temperature Difference {deltaC}
  SupplyAirTemperature,                   !- Zone Heating Design Supply Air Temperature Input Method
  40,                                     !- Zone Heating Design Supply Air Temperature {C}
  11.11,                                  !- Zone Heating Design Supply Air Temperature Difference {deltaC}
  0.0085,                                 !- Zone Cooling Design Supply Air Humidity Ratio {kg-H2O/kg-air}
  0.008,                                  !- Zone Heating Design Supply Air Humidity Ratio {kg-H2O/kg-air}
  ,                                       !- Zone Heating Sizing Factor
  ,                                       !- Zone Cooling Sizing Factor
  DesignDay,                              !- Cooling Design Air Flow Method
  ,                                       !- Cooling Design Air Flow Rate {m3/s}